Version 4
SHEET 1 5196 964
WIRE -32 -80 -112 -80
WIRE 144 -80 48 -80
WIRE 304 -80 144 -80
WIRE 448 -80 384 -80
WIRE 1360 -32 1232 -32
WIRE 1568 -32 1424 -32
WIRE 240 0 240 -32
WIRE 144 16 144 -80
WIRE 208 16 144 16
WIRE 448 32 448 -80
WIRE 448 32 272 32
WIRE -192 48 -320 48
WIRE 0 48 -192 48
WIRE 144 48 80 48
WIRE 208 48 144 48
WIRE 1536 48 1376 48
WIRE -608 64 -720 64
WIRE -592 64 -608 64
WIRE 896 64 752 64
WIRE 144 80 144 48
WIRE -1104 96 -1136 96
WIRE -976 96 -1104 96
WIRE 240 96 240 64
WIRE -1136 128 -1136 96
WIRE -720 128 -720 64
WIRE 816 176 816 128
WIRE 1456 176 1456 128
WIRE 144 192 144 160
WIRE 752 192 752 64
WIRE 784 192 752 192
WIRE 1376 192 1376 48
WIRE 1424 192 1376 192
WIRE 448 208 448 32
WIRE 528 208 448 208
WIRE 608 208 528 208
WIRE 896 208 896 64
WIRE 896 208 848 208
WIRE 976 208 896 208
WIRE 1120 208 976 208
WIRE 1232 208 1232 -32
WIRE 1232 208 1200 208
WIRE 1264 208 1232 208
WIRE 1536 208 1536 48
WIRE 1536 208 1488 208
WIRE 1568 208 1568 -32
WIRE 1568 208 1536 208
WIRE 1600 208 1568 208
WIRE 1616 208 1600 208
WIRE -1136 224 -1136 208
WIRE 688 224 688 208
WIRE 704 224 688 224
WIRE 784 224 704 224
WIRE 1344 224 1344 208
WIRE 1360 224 1344 224
WIRE 1424 224 1360 224
WIRE 704 256 704 224
WIRE 816 256 816 240
WIRE 1360 256 1360 224
WIRE 816 272 816 256
WIRE -1056 288 -1136 288
WIRE -976 288 -1056 288
WIRE 1456 288 1456 240
WIRE -1136 320 -1136 288
WIRE -720 320 -720 208
WIRE 1360 336 1360 320
WIRE -48 368 -48 336
WIRE -1136 416 -1136 400
WIRE -48 464 -48 448
WIRE -48 464 -128 464
WIRE 304 480 96 480
WIRE -48 512 -48 464
WIRE 176 544 176 528
WIRE 176 560 176 544
WIRE 96 576 96 480
WIRE 144 576 96 576
WIRE 1008 576 1008 544
WIRE 1136 576 1136 544
WIRE 272 592 208 592
WIRE 304 592 304 480
WIRE 304 592 272 592
WIRE -128 608 -128 464
WIRE -48 608 -48 592
WIRE 0 608 -48 608
WIRE 144 608 0 608
WIRE -48 624 -48 608
WIRE 176 656 176 624
WIRE 1008 688 1008 656
WIRE 1136 688 1136 656
WIRE -128 704 -128 672
WIRE -48 704 -128 704
WIRE -48 720 -48 704
FLAG -720 320 0
FLAG 1008 688 0
FLAG 1136 688 0
FLAG 1008 544 Vp
FLAG 1136 544 Vn
FLAG 816 128 Vp
FLAG 816 256 Vn
FLAG 976 208 OUT1
FLAG -192 48 IN
FLAG 1600 208 OUT
FLAG 1456 128 Vp
FLAG 1456 288 Vn
FLAG -1136 224 0
FLAG -1136 416 0
FLAG -1104 96 sine
FLAG -1056 288 ramp
FLAG 704 320 0
FLAG 1360 336 0
FLAG 240 -32 Vp
FLAG 240 96 0
FLAG -112 -80 0
FLAG 144 192 Vref
FLAG 528 208 scaled_pwm
FLAG 176 656 0
FLAG 272 592 Vref
FLAG -48 336 Vp
FLAG -48 720 0
FLAG 0 608 Vdiode
FLAG 176 544 Vp
FLAG -608 64 IN
SYMBOL voltage 1008 560 R0
WINDOW 123 0 0 Left 2
WINDOW 39 0 0 Left 2
SYMATTR InstName Vp
SYMATTR Value 9
SYMBOL voltage 1136 560 R0
WINDOW 123 0 0 Left 2
WINDOW 39 0 0 Left 2
SYMATTR InstName Vn
SYMATTR Value 0
SYMBOL voltage -1136 112 R0
SYMATTR InstName Vsine
SYMATTR Value SINE(2.5 2.5 600)
SYMBOL voltage -1136 304 R0
SYMATTR InstName Vramp
SYMATTR Value PULSE(0 5 0 15.873u 15.973u 0 31.746u)
SYMBOL bv -720 112 R0
SYMATTR InstName B1
SYMATTR Value V=if(V(sine)>V(ramp),5,0)
SYMBOL res 128 64 R0
SYMATTR InstName R1
SYMATTR Value 1k
SYMBOL res 96 32 R90
WINDOW 0 0 56 VBottom 2
WINDOW 3 32 56 VTop 2
SYMATTR InstName R2
SYMATTR Value 10k
SYMBOL res 64 -96 R90
WINDOW 0 0 56 VBottom 2
WINDOW 3 32 56 VTop 2
SYMATTR InstName R3
SYMATTR Value 10k
SYMBOL res 400 -96 R90
WINDOW 0 0 56 VBottom 2
WINDOW 3 32 56 VTop 2
SYMATTR InstName R4
SYMATTR Value 1k
SYMBOL Opamps/LT1413 816 144 R0
SYMATTR InstName U4
SYMBOL Opamps/LT1413 1456 144 R0
SYMATTR InstName U5
SYMBOL res 704 192 R90
WINDOW 0 0 56 VBottom 2
WINDOW 3 32 56 VTop 2
SYMATTR InstName R6
SYMATTR Value 110k
SYMBOL res 1360 192 R90
WINDOW 0 0 56 VBottom 2
WINDOW 3 32 56 VTop 2
SYMATTR InstName R13
SYMATTR Value 287k
SYMBOL res 1216 192 R90
WINDOW 0 0 56 VBottom 2
WINDOW 3 32 56 VTop 2
SYMATTR InstName R5
SYMATTR Value 287k
SYMBOL cap 688 256 R0
SYMATTR InstName C1
SYMATTR Value 1.3n
SYMBOL cap 1344 256 R0
SYMATTR InstName C6
SYMATTR Value 56p
SYMBOL cap 1424 -48 R90
WINDOW 0 0 32 VBottom 2
WINDOW 3 32 32 VTop 2
SYMATTR InstName C7
SYMATTR Value 1n
SYMBOL Opamps/LT1413 240 -32 R0
SYMATTR InstName U1
SYMBOL Opamps/LT1413 176 528 R0
SYMATTR InstName U2
SYMBOL res -64 496 R0
SYMATTR InstName R7
SYMATTR Value 1.5k
SYMBOL res -64 608 R0
SYMATTR InstName R8
SYMATTR Value 4.7k
SYMBOL zener -112 672 R180
WINDOW 0 24 64 Left 2
WINDOW 3 24 0 Left 2
SYMATTR InstName D1
SYMATTR Value PTZ6_2B
SYMBOL res -64 352 R0
SYMATTR InstName R9
SYMATTR Value 3.3k
TEXT -1144 488 Left 2 !.tran 0 10m .5m 1u
TEXT -1128 -32 Left 4 ;Model of PWM from an Arduino
TEXT -248 -280 Left 4 ;Shift and Scale PWM\n   - DC shift 4.5V\n   - Scale by 1/10 (500mV peak to peak)
TEXT -144 792 Left 4 ;Voltage Reference 4.5V
TEXT 768 -256 Left 4 ;Low Pass 3rd-Order Chebyshev 1.09dB\n    - Pass band: -18dB at 4kHz\n    - Stop-band: -40dB at 10kHz
TEXT -1024 -440 Left 7 ;PWM Filter for Input into LM386 Power Amplifier
TEXT 960 760 Left 4 ;Power Sources
