Version 4
SHEET 1 5196 964
WIRE -32 -80 -112 -80
WIRE 144 -80 48 -80
WIRE 304 -80 144 -80
WIRE 448 -80 384 -80
WIRE 1360 -32 1232 -32
WIRE 1568 -32 1424 -32
WIRE 240 0 240 -32
WIRE 144 16 144 -80
WIRE 208 16 144 16
WIRE 448 32 448 -80
WIRE 448 32 272 32
WIRE -192 48 -320 48
WIRE 0 48 -192 48
WIRE 144 48 80 48
WIRE 208 48 144 48
WIRE 1536 48 1376 48
WIRE 896 64 752 64
WIRE 144 80 144 48
WIRE 240 96 240 64
WIRE -320 176 -320 48
WIRE 816 176 816 128
WIRE 1456 176 1456 128
WIRE 144 192 144 160
WIRE 752 192 752 64
WIRE 784 192 752 192
WIRE 1376 192 1376 48
WIRE 1424 192 1376 192
WIRE 448 208 448 32
WIRE 496 208 448 208
WIRE 608 208 496 208
WIRE 896 208 896 64
WIRE 896 208 848 208
WIRE 976 208 896 208
WIRE 1120 208 976 208
WIRE 1232 208 1232 -32
WIRE 1232 208 1200 208
WIRE 1264 208 1232 208
WIRE 1536 208 1536 48
WIRE 1536 208 1488 208
WIRE 1568 208 1568 -32
WIRE 1568 208 1536 208
WIRE 1600 208 1568 208
WIRE 1616 208 1600 208
WIRE 688 224 688 208
WIRE 704 224 688 224
WIRE 784 224 704 224
WIRE 1344 224 1344 208
WIRE 1360 224 1344 224
WIRE 1424 224 1360 224
WIRE 704 256 704 224
WIRE 816 256 816 240
WIRE 1360 256 1360 224
WIRE -720 272 -752 272
WIRE -592 272 -720 272
WIRE 816 272 816 256
WIRE 1456 288 1456 240
WIRE -752 304 -752 272
WIRE 1360 336 1360 320
WIRE -320 368 -320 256
WIRE -752 400 -752 384
WIRE 16 448 16 416
WIRE -672 464 -752 464
WIRE -592 464 -672 464
WIRE -752 496 -752 464
WIRE 16 544 16 528
WIRE 16 544 -64 544
WIRE 960 544 960 512
WIRE 1088 544 1088 512
WIRE 368 560 160 560
WIRE -752 592 -752 576
WIRE 16 592 16 544
WIRE 240 624 240 608
WIRE 240 640 240 624
WIRE 160 656 160 560
WIRE 208 656 160 656
WIRE 960 656 960 624
WIRE 1088 656 1088 624
WIRE 336 672 272 672
WIRE 368 672 368 560
WIRE 368 672 336 672
WIRE -64 688 -64 544
WIRE 16 688 16 672
WIRE 64 688 16 688
WIRE 208 688 64 688
WIRE 16 704 16 688
WIRE 240 736 240 704
WIRE -64 784 -64 752
WIRE 16 784 -64 784
WIRE 16 800 16 784
FLAG -320 368 0
FLAG 960 656 0
FLAG 1088 656 0
FLAG 960 512 Vp
FLAG 1088 512 Vn
FLAG 816 128 Vp
FLAG 816 256 Vn
FLAG 976 208 OUT1
FLAG -192 48 IN
FLAG 1600 208 OUT
FLAG 1456 128 Vp
FLAG 1456 288 Vn
FLAG -752 400 0
FLAG -752 592 0
FLAG -720 272 sine
FLAG -672 464 ramp
FLAG 704 320 0
FLAG 1360 336 0
FLAG 240 -32 Vp
FLAG 240 96 0
FLAG -112 -80 0
FLAG 144 192 Vref
FLAG 496 208 pwm
FLAG 240 736 0
FLAG 336 672 Vref
FLAG 16 416 Vp
FLAG 16 800 0
FLAG 64 688 Vdiode
FLAG 240 624 Vp
SYMBOL voltage 960 528 R0
WINDOW 123 0 0 Left 2
WINDOW 39 0 0 Left 2
SYMATTR InstName Vp
SYMATTR Value 9
SYMBOL voltage 1088 528 R0
WINDOW 123 0 0 Left 2
WINDOW 39 0 0 Left 2
SYMATTR InstName Vn
SYMATTR Value 0
SYMBOL voltage -752 288 R0
SYMATTR InstName Vsine
SYMATTR Value SINE(2.5 2.5 600)
SYMBOL voltage -752 480 R0
SYMATTR InstName Vramp
SYMATTR Value PULSE(0 5 0 15.873u 15.973u 0 31.746u)
SYMBOL bv -320 160 R0
SYMATTR InstName B1
SYMATTR Value V=if(V(sine)>V(ramp),5,0)
SYMBOL res 128 64 R0
SYMATTR InstName R1
SYMATTR Value 1k
SYMBOL res 96 32 R90
WINDOW 0 0 56 VBottom 2
WINDOW 3 32 56 VTop 2
SYMATTR InstName R2
SYMATTR Value 10k
SYMBOL res 64 -96 R90
WINDOW 0 0 56 VBottom 2
WINDOW 3 32 56 VTop 2
SYMATTR InstName R3
SYMATTR Value 10k
SYMBOL res 400 -96 R90
WINDOW 0 0 56 VBottom 2
WINDOW 3 32 56 VTop 2
SYMATTR InstName R4
SYMATTR Value 1k
SYMBOL Opamps/LT1413 816 144 R0
SYMATTR InstName U4
SYMBOL Opamps/LT1413 1456 144 R0
SYMATTR InstName U5
SYMBOL res 704 192 R90
WINDOW 0 0 56 VBottom 2
WINDOW 3 32 56 VTop 2
SYMATTR InstName R6
SYMATTR Value 110k
SYMBOL res 1360 192 R90
WINDOW 0 0 56 VBottom 2
WINDOW 3 32 56 VTop 2
SYMATTR InstName R13
SYMATTR Value 287k
SYMBOL res 1216 192 R90
WINDOW 0 0 56 VBottom 2
WINDOW 3 32 56 VTop 2
SYMATTR InstName R5
SYMATTR Value 287k
SYMBOL cap 688 256 R0
SYMATTR InstName C1
SYMATTR Value 1.3n
SYMBOL cap 1344 256 R0
SYMATTR InstName C6
SYMATTR Value 56p
SYMBOL cap 1424 -48 R90
WINDOW 0 0 32 VBottom 2
WINDOW 3 32 32 VTop 2
SYMATTR InstName C7
SYMATTR Value 1n
SYMBOL Opamps/LT1413 240 -32 R0
SYMATTR InstName U1
SYMBOL Opamps/LT1413 240 608 R0
SYMATTR InstName U2
SYMBOL res 0 576 R0
SYMATTR InstName R7
SYMATTR Value 1.7k
SYMBOL res 0 688 R0
SYMATTR InstName R8
SYMATTR Value 5.1k
SYMBOL zener -48 752 R180
WINDOW 0 24 64 Left 2
WINDOW 3 24 0 Left 2
SYMATTR InstName D1
SYMATTR Value PTZ6_2B
SYMBOL res 0 432 R0
SYMATTR InstName R9
SYMATTR Value 3.2k
TEXT -760 664 Left 2 !.tran 0 10m .5m 1u
